39

H      -6.96171373       0.02756990      -0.00877381
H       3.10238627      -2.69688010      -0.00877381
H      -0.56743873      -6.36670510      -0.00877381
H      -3.29188873       3.69739490      -0.00877381
Fe      -1.92966373      -1.33465510      -0.00877381
N      -1.92966373      -3.29974910      -0.00877381
N       0.03543027      -1.33465510      -0.00877381
N      -1.92966373       0.63043890      -0.00877381
N      -3.89475773      -1.33465510      -0.00877381
C      -0.83720373      -4.14551410      -0.00877381
C      -3.02212373      -4.14551410      -0.00877381
C      -0.83720373       1.47620390      -0.00877381
C      -3.02212373       1.47620390      -0.00877381
C       0.88119527      -2.42711510      -0.00877381
C       0.88119527      -0.24219510      -0.00877381
C      -4.74052273      -2.42711510      -0.00877381
C      -4.74052273      -0.24219510      -0.00877381
C      -1.24964273      -5.52368710      -0.00877381
C      -2.60968473      -5.52368710      -0.00877381
C      -1.24964273       2.85437690      -0.00877381
C      -2.60968473       2.85437690      -0.00877381
C       2.25936827      -2.01467610      -0.00877381
C       2.25936827      -0.65463410      -0.00877381
C      -6.11869573      -2.01467610      -0.00877381
C      -6.11869573      -0.65463410      -0.00877381
C       0.48288827      -3.74720710      -0.00877381
C      -4.34221573      -3.74720710      -0.00877381
C      -4.34221573       1.07789690      -0.00877381
C       0.48288827       1.07789690      -0.00877381
H      -3.29188873      -6.36670510      -0.00877381
H      -0.56743873       3.69739490      -0.00877381
H       3.10238627       0.02756990      -0.00877381
H      -6.96171373      -2.69688010      -0.00877381
H       1.25183227      -4.51615110      -0.00877381
H      -5.11115973      -4.51615110      -0.00877381
H      -5.11115973       1.84684090      -0.00877381
H       1.25183227       1.84684090      -0.00877381
H      -1.92966103      -1.33465762       1.89122619
H      -1.92966553      -1.33465754      -1.90877381
