13

H      -2.74593603       3.22063216      -1.72438789
C      -1.16564607       1.04562659      -1.02086861
H      -0.62786529       1.93492951      -1.38085861
H      -0.62786529       0.15632367      -1.38085861
C      -2.62698459       1.04562659      -1.49070861
H      -3.27019900       1.05106578      -0.59382548
C      -2.94893898      -0.22338589      -2.29209028
H      -2.32938487      -0.27530321      -3.20187377
H      -2.75283144      -1.13118865      -1.70294120
H      -4.00312832      -0.24433822      -2.60499040
C      -2.94492852       2.30769275      -2.30456397
H      -3.99905106       2.32890058      -2.61767186
H      -2.32522721       2.34867703      -3.21480530
