12

H      -2.46912000      -0.13158000      -0.04694000
H      -1.34121000       2.07991000      -0.01201000
H       1.14329000       2.20171000       0.05054000
H       1.36541000      -2.07780000       0.06101000
H      -1.11803000      -2.21419000      -0.01289000
H       2.47738366       0.12514848       0.08913398
C      -1.38400000      -0.07504000      -0.01699000
C      -0.75057000       1.16773000       0.00198000
C       0.64201000       1.23861000       0.03844000
C       1.39923000       0.06937000       0.05958000
C       0.76726000      -1.17174000       0.04264000
C      -0.62508000      -1.24578000       0.00257000
